<?xml version="1.0" encoding="UTF-8"?>
<trips xmlns:xsi="http://www.w3.org/2001/XMLSchema-instance" xsi:noNamespaceSchemaLocation="http://sumo.dlr.de/xsd/trips_file.xsd">
    <trip id="veh_0" depart="0" from="edge_in_1" to="edge_out_1" />
    <trip id="veh_1" depart="3599" from="edge_in_1" to="edge_out_2" />
    <trip id="veh_2" depart="0" from="edge_in_1" to="edge_out_2" />
    <trip id="veh_3" depart="3599" from="edge_in_1" to="edge_out_1" />
    <trip id="veh_4" depart="0" from="edge_in_1" to="edge_out_1" />
    <trip id="veh_5" depart="3599" from="edge_in_2" to="edge_out_1" />
    <trip id="veh_6" depart="0" from="edge_in_1" to="edge_out_2" />
    <trip id="veh_7" depart="3599" from="edge_in_2" to="edge_out_1" />
    <trip id="veh_8" depart="0" from="edge_in_2" to="edge_out_2" />
    <trip id="veh_9" depart="3599" from="edge_in_2" to="edge_out_1" />
    <trip id="veh_10" depart="0" from="edge_in_2" to="edge_out_2" />
    <trip id="veh_11" depart="3599" from="edge_in_2" to="edge_out_2" />
    <trip id="veh_12" depart="0" from="edge_in_1" to="edge_out_1" />
    <trip id="veh_13" depart="0" from="edge_in_2" to="edge_out_2" />
    <trip id="veh_14" depart="0" from="edge_in_2" to="edge_out_1" />
    <trip id="veh_15" depart="0" from="edge_in_2" to="edge_out_2" />
    <trip id="veh_16" depart="0" from="edge_in_2" to="edge_out_2" />
    <trip id="veh_17" depart="0" from="edge_in_1" to="edge_out_2" />
    <trip id="veh_18" depart="0" from="edge_in_1" to="edge_out_2" />
    <trip id="veh_19" depart="0" from="edge_in_1" to="edge_out_1" />
    <trip id="veh_20" depart="0" from="edge_in_2" to="edge_out_2" />
    <trip id="veh_21" depart="0" from="edge_in_1" to="edge_out_1" />
    <trip id="veh_22" depart="0" from="edge_in_2" to="edge_out_2" />
    <trip id="veh_23" depart="0" from="edge_in_2" to="edge_out_2" />
    <trip id="veh_24" depart="0" from="edge_in_1" to="edge_out_2" />
    <trip id="veh_25" depart="0" from="edge_in_1" to="edge_out_1" />
    <trip id="veh_26" depart="0" from="edge_in_2" to="edge_out_1" />
    <trip id="veh_27" depart="0" from="edge_in_1" to="edge_out_2" />
    <trip id="veh_28" depart="0" from="edge_in_1" to="edge_out_1" />
    <trip id="veh_29" depart="0" from="edge_in_2" to="edge_out_2" />
    <trip id="veh_30" depart="0" from="edge_in_2" to="edge_out_2" />
    <trip id="veh_31" depart="0" from="edge_in_1" to="edge_out_2" />
    <trip id="veh_32" depart="0" from="edge_in_2" to="edge_out_2" />
    <trip id="veh_33" depart="0" from="edge_in_2" to="edge_out_1" />
    <trip id="veh_34" depart="0" from="edge_in_2" to="edge_out_2" />
    <trip id="veh_35" depart="0" from="edge_in_1" to="edge_out_2" />
    <trip id="veh_36" depart="0" from="edge_in_1" to="edge_out_2" />
    <trip id="veh_37" depart="0" from="edge_in_1" to="edge_out_2" />
    <trip id="veh_38" depart="0" from="edge_in_1" to="edge_out_2" />
    <trip id="veh_39" depart="0" from="edge_in_2" to="edge_out_1" />
    <trip id="veh_40" depart="0" from="edge_in_2" to="edge_out_2" />
    <trip id="veh_41" depart="449" from="edge_in_2" to="edge_out_2" />
    <trip id="veh_42" depart="899" from="edge_in_2" to="edge_out_1" />
    <trip id="veh_43" depart="1349" from="edge_in_2" to="edge_out_2" />
    <trip id="veh_44" depart="1799" from="edge_in_1" to="edge_out_1" />
    <trip id="veh_45" depart="2249" from="edge_in_1" to="edge_out_1" />
    <trip id="veh_46" depart="2699" from="edge_in_2" to="edge_out_2" />
    <trip id="veh_47" depart="3149" from="edge_in_2" to="edge_out_1" />
    <trip id="veh_48" depart="3599" from="edge_in_2" to="edge_out_2" />
    <trip id="veh_49" depart="0" from="edge_in_1" to="edge_out_1" />
    <trip id="veh_50" depart="449" from="edge_in_2" to="edge_out_1" />
    <trip id="veh_51" depart="899" from="edge_in_2" to="edge_out_1" />
    <trip id="veh_52" depart="1349" from="edge_in_1" to="edge_out_2" />
    <trip id="veh_53" depart="1799" from="edge_in_2" to="edge_out_1" />
    <trip id="veh_54" depart="2249" from="edge_in_2" to="edge_out_2" />
    <trip id="veh_55" depart="2699" from="edge_in_2" to="edge_out_2" />
    <trip id="veh_56" depart="3149" from="edge_in_2" to="edge_out_1" />
    <trip id="veh_57" depart="3599" from="edge_in_1" to="edge_out_2" />
    <trip id="veh_58" depart="0" from="edge_in_1" to="edge_out_1" />
    <trip id="veh_59" depart="399" from="edge_in_1" to="edge_out_1" />
    <trip id="veh_60" depart="799" from="edge_in_2" to="edge_out_1" />
    <trip id="veh_61" depart="1199" from="edge_in_1" to="edge_out_2" />
    <trip id="veh_62" depart="1599" from="edge_in_1" to="edge_out_1" />
    <trip id="veh_63" depart="1999" from="edge_in_2" to="edge_out_1" />
    <trip id="veh_64" depart="2399" from="edge_in_1" to="edge_out_1" />
    <trip id="veh_65" depart="2799" from="edge_in_2" to="edge_out_1" />
    <trip id="veh_66" depart="3199" from="edge_in_1" to="edge_out_2" />
    <trip id="veh_67" depart="3599" from="edge_in_1" to="edge_out_2" />
    <trip id="veh_68" depart="0" from="edge_in_1" to="edge_out_2" />
    <trip id="veh_69" depart="399" from="edge_in_2" to="edge_out_2" />
    <trip id="veh_70" depart="799" from="edge_in_1" to="edge_out_2" />
    <trip id="veh_71" depart="1199" from="edge_in_2" to="edge_out_1" />
    <trip id="veh_72" depart="1599" from="edge_in_1" to="edge_out_1" />
    <trip id="veh_73" depart="1999" from="edge_in_1" to="edge_out_1" />
    <trip id="veh_74" depart="2399" from="edge_in_2" to="edge_out_2" />
    <trip id="veh_75" depart="2799" from="edge_in_1" to="edge_out_1" />
    <trip id="veh_76" depart="3199" from="edge_in_1" to="edge_out_1" />
    <trip id="veh_77" depart="3599" from="edge_in_2" to="edge_out_1" />
    <trip id="veh_78" depart="0" from="edge_in_1" to="edge_out_2" />
    <trip id="veh_79" depart="399" from="edge_in_2" to="edge_out_1" />
    <trip id="veh_80" depart="799" from="edge_in_1" to="edge_out_1" />
    <trip id="veh_81" depart="1199" from="edge_in_2" to="edge_out_2" />
    <trip id="veh_82" depart="1599" from="edge_in_2" to="edge_out_1" />
    <trip id="veh_83" depart="1999" from="edge_in_1" to="edge_out_2" />
    <trip id="veh_84" depart="2399" from="edge_in_1" to="edge_out_1" />
    <trip id="veh_85" depart="2799" from="edge_in_1" to="edge_out_1" />
    <trip id="veh_86" depart="3199" from="edge_in_1" to="edge_out_2" />
    <trip id="veh_87" depart="3599" from="edge_in_1" to="edge_out_2" />
    <trip id="veh_88" depart="0" from="edge_in_2" to="edge_out_1" />
    <trip id="veh_89" depart="399" from="edge_in_1" to="edge_out_1" />
    <trip id="veh_90" depart="799" from="edge_in_2" to="edge_out_2" />
    <trip id="veh_91" depart="1199" from="edge_in_1" to="edge_out_1" />
    <trip id="veh_92" depart="1599" from="edge_in_1" to="edge_out_1" />
    <trip id="veh_93" depart="1999" from="edge_in_2" to="edge_out_1" />
    <trip id="veh_94" depart="2399" from="edge_in_1" to="edge_out_2" />
    <trip id="veh_95" depart="2799" from="edge_in_2" to="edge_out_2" />
    <trip id="veh_96" depart="3199" from="edge_in_1" to="edge_out_2" />
    <trip id="veh_97" depart="3599" from="edge_in_1" to="edge_out_2" />
    <trip id="veh_98" depart="0" from="edge_in_1" to="edge_out_1" />
    <trip id="veh_99" depart="399" from="edge_in_2" to="edge_out_1" />
    <trip id="veh_100" depart="799" from="edge_in_1" to="edge_out_1" />
    <trip id="veh_101" depart="1199" from="edge_in_1" to="edge_out_1" />
    <trip id="veh_102" depart="1599" from="edge_in_2" to="edge_out_2" />
    <trip id="veh_103" depart="1999" from="edge_in_1" to="edge_out_1" />
    <trip id="veh_104" depart="2399" from="edge_in_2" to="edge_out_2" />
    <trip id="veh_105" depart="2799" from="edge_in_1" to="edge_out_1" />
    <trip id="veh_106" depart="3199" from="edge_in_2" to="edge_out_2" />
    <trip id="veh_107" depart="3599" from="edge_in_2" to="edge_out_1" />
    <trip id="veh_108" depart="0" from="edge_in_1" to="edge_out_1" />
    <trip id="veh_109" depart="399" from="edge_in_1" to="edge_out_1" />
    <trip id="veh_110" depart="799" from="edge_in_1" to="edge_out_1" />
    <trip id="veh_111" depart="1199" from="edge_in_2" to="edge_out_1" />
    <trip id="veh_112" depart="1599" from="edge_in_2" to="edge_out_2" />
    <trip id="veh_113" depart="1999" from="edge_in_1" to="edge_out_2" />
    <trip id="veh_114" depart="2399" from="edge_in_1" to="edge_out_1" />
    <trip id="veh_115" depart="2799" from="edge_in_1" to="edge_out_1" />
    <trip id="veh_116" depart="3199" from="edge_in_1" to="edge_out_2" />
    <trip id="veh_117" depart="3599" from="edge_in_2" to="edge_out_1" />
    <trip id="veh_118" depart="0" from="edge_in_2" to="edge_out_2" />
    <trip id="veh_119" depart="399" from="edge_in_2" to="edge_out_2" />
    <trip id="veh_120" depart="799" from="edge_in_2" to="edge_out_2" />
    <trip id="veh_121" depart="1199" from="edge_in_1" to="edge_out_2" />
    <trip id="veh_122" depart="1599" from="edge_in_1" to="edge_out_1" />
    <trip id="veh_123" depart="1999" from="edge_in_2" to="edge_out_1" />
    <trip id="veh_124" depart="2399" from="edge_in_2" to="edge_out_2" />
    <trip id="veh_125" depart="2799" from="edge_in_1" to="edge_out_1" />
    <trip id="veh_126" depart="3199" from="edge_in_1" to="edge_out_2" />
    <trip id="veh_127" depart="3599" from="edge_in_1" to="edge_out_1" />
    <trip id="veh_128" depart="0" from="edge_in_1" to="edge_out_2" />
    <trip id="veh_129" depart="399" from="edge_in_2" to="edge_out_1" />
    <trip id="veh_130" depart="799" from="edge_in_2" to="edge_out_2" />
    <trip id="veh_131" depart="1199" from="edge_in_1" to="edge_out_1" />
    <trip id="veh_132" depart="1599" from="edge_in_2" to="edge_out_2" />
    <trip id="veh_133" depart="1999" from="edge_in_1" to="edge_out_2" />
    <trip id="veh_134" depart="2399" from="edge_in_2" to="edge_out_1" />
    <trip id="veh_135" depart="2799" from="edge_in_2" to="edge_out_1" />
    <trip id="veh_136" depart="3199" from="edge_in_1" to="edge_out_1" />
    <trip id="veh_137" depart="3599" from="edge_in_1" to="edge_out_2" />
    <trip id="veh_138" depart="0" from="edge_in_2" to="edge_out_2" />
    <trip id="veh_139" depart="449" from="edge_in_1" to="edge_out_2" />
    <trip id="veh_140" depart="899" from="edge_in_1" to="edge_out_1" />
    <trip id="veh_141" depart="1349" from="edge_in_2" to="edge_out_1" />
    <trip id="veh_142" depart="1799" from="edge_in_2" to="edge_out_2" />
    <trip id="veh_143" depart="2249" from="edge_in_1" to="edge_out_1" />
    <trip id="veh_144" depart="2699" from="edge_in_1" to="edge_out_1" />
    <trip id="veh_145" depart="3149" from="edge_in_1" to="edge_out_1" />
    <trip id="veh_146" depart="3599" from="edge_in_2" to="edge_out_1" />
    <trip id="veh_147" depart="0" from="edge_in_2" to="edge_out_2" />
    <trip id="veh_148" depart="399" from="edge_in_1" to="edge_out_2" />
    <trip id="veh_149" depart="799" from="edge_in_1" to="edge_out_1" />
    <trip id="veh_150" depart="1199" from="edge_in_2" to="edge_out_1" />
    <trip id="veh_151" depart="1599" from="edge_in_1" to="edge_out_2" />
    <trip id="veh_152" depart="1999" from="edge_in_1" to="edge_out_1" />
    <trip id="veh_153" depart="2399" from="edge_in_1" to="edge_out_2" />
    <trip id="veh_154" depart="2799" from="edge_in_1" to="edge_out_1" />
    <trip id="veh_155" depart="3199" from="edge_in_1" to="edge_out_1" />
    <trip id="veh_156" depart="3599" from="edge_in_1" to="edge_out_2" />
    <trip id="veh_157" depart="0" from="edge_in_1" to="edge_out_1" />
    <trip id="veh_158" depart="399" from="edge_in_2" to="edge_out_1" />
    <trip id="veh_159" depart="799" from="edge_in_1" to="edge_out_1" />
    <trip id="veh_160" depart="1199" from="edge_in_2" to="edge_out_2" />
    <trip id="veh_161" depart="1599" from="edge_in_1" to="edge_out_2" />
    <trip id="veh_162" depart="1999" from="edge_in_1" to="edge_out_2" />
    <trip id="veh_163" depart="2399" from="edge_in_2" to="edge_out_1" />
    <trip id="veh_164" depart="2799" from="edge_in_1" to="edge_out_1" />
    <trip id="veh_165" depart="3199" from="edge_in_2" to="edge_out_1" />
    <trip id="veh_166" depart="3599" from="edge_in_1" to="edge_out_2" />
    <trip id="veh_167" depart="0" from="edge_in_1" to="edge_out_2" />
    <trip id="veh_168" depart="399" from="edge_in_1" to="edge_out_2" />
    <trip id="veh_169" depart="799" from="edge_in_2" to="edge_out_1" />
    <trip id="veh_170" depart="1199" from="edge_in_1" to="edge_out_1" />
    <trip id="veh_171" depart="1599" from="edge_in_1" to="edge_out_1" />
    <trip id="veh_172" depart="1999" from="edge_in_2" to="edge_out_2" />
    <trip id="veh_173" depart="2399" from="edge_in_2" to="edge_out_2" />
    <trip id="veh_174" depart="2799" from="edge_in_2" to="edge_out_1" />
    <trip id="veh_175" depart="3199" from="edge_in_1" to="edge_out_1" />
    <trip id="veh_176" depart="3599" from="edge_in_2" to="edge_out_2" />
    <trip id="veh_177" depart="0" from="edge_in_2" to="edge_out_2" />
    <trip id="veh_178" depart="399" from="edge_in_2" to="edge_out_2" />
    <trip id="veh_179" depart="799" from="edge_in_2" to="edge_out_2" />
    <trip id="veh_180" depart="1199" from="edge_in_1" to="edge_out_2" />
    <trip id="veh_181" depart="1599" from="edge_in_1" to="edge_out_1" />
    <trip id="veh_182" depart="1999" from="edge_in_2" to="edge_out_2" />
    <trip id="veh_183" depart="2399" from="edge_in_2" to="edge_out_2" />
    <trip id="veh_184" depart="2799" from="edge_in_1" to="edge_out_2" />
    <trip id="veh_185" depart="3199" from="edge_in_2" to="edge_out_2" />
    <trip id="veh_186" depart="3599" from="edge_in_2" to="edge_out_2" />
    <trip id="veh_187" depart="0" from="edge_in_2" to="edge_out_1" />
    <trip id="veh_188" depart="399" from="edge_in_2" to="edge_out_1" />
    <trip id="veh_189" depart="799" from="edge_in_2" to="edge_out_1" />
    <trip id="veh_190" depart="1199" from="edge_in_2" to="edge_out_1" />
    <trip id="veh_191" depart="1599" from="edge_in_2" to="edge_out_2" />
    <trip id="veh_192" depart="1999" from="edge_in_2" to="edge_out_1" />
    <trip id="veh_193" depart="2399" from="edge_in_1" to="edge_out_1" />
    <trip id="veh_194" depart="2799" from="edge_in_1" to="edge_out_1" />
    <trip id="veh_195" depart="3199" from="edge_in_1" to="edge_out_2" />
    <trip id="veh_196" depart="3599" from="edge_in_2" to="edge_out_2" />
    <trip id="veh_197" depart="0" from="edge_in_1" to="edge_out_1" />
    <trip id="veh_198" depart="399" from="edge_in_1" to="edge_out_1" />
    <trip id="veh_199" depart="799" from="edge_in_2" to="edge_out_1" />
    <trip id="veh_200" depart="1199" from="edge_in_1" to="edge_out_1" />
    <trip id="veh_201" depart="1599" from="edge_in_1" to="edge_out_2" />
    <trip id="veh_202" depart="1999" from="edge_in_2" to="edge_out_1" />
    <trip id="veh_203" depart="2399" from="edge_in_1" to="edge_out_1" />
    <trip id="veh_204" depart="2799" from="edge_in_1" to="edge_out_1" />
    <trip id="veh_205" depart="3199" from="edge_in_1" to="edge_out_1" />
    <trip id="veh_206" depart="3599" from="edge_in_2" to="edge_out_1" />
    <trip id="veh_207" depart="0" from="edge_in_1" to="edge_out_1" />
    <trip id="veh_208" depart="399" from="edge_in_1" to="edge_out_1" />
    <trip id="veh_209" depart="799" from="edge_in_2" to="edge_out_1" />
    <trip id="veh_210" depart="1199" from="edge_in_1" to="edge_out_2" />
    <trip id="veh_211" depart="1599" from="edge_in_2" to="edge_out_1" />
    <trip id="veh_212" depart="1999" from="edge_in_2" to="edge_out_2" />
    <trip id="veh_213" depart="2399" from="edge_in_1" to="edge_out_1" />
    <trip id="veh_214" depart="2799" from="edge_in_2" to="edge_out_2" />
    <trip id="veh_215" depart="3199" from="edge_in_1" to="edge_out_1" />
    <trip id="veh_216" depart="3599" from="edge_in_2" to="edge_out_2" />
    <trip id="veh_217" depart="0" from="edge_in_2" to="edge_out_1" />
    <trip id="veh_218" depart="359" from="edge_in_2" to="edge_out_2" />
    <trip id="veh_219" depart="719" from="edge_in_1" to="edge_out_2" />
    <trip id="veh_220" depart="1079" from="edge_in_1" to="edge_out_1" />
    <trip id="veh_221" depart="1439" from="edge_in_1" to="edge_out_1" />
    <trip id="veh_222" depart="1799" from="edge_in_1" to="edge_out_1" />
    <trip id="veh_223" depart="2159" from="edge_in_2" to="edge_out_1" />
    <trip id="veh_224" depart="2519" from="edge_in_1" to="edge_out_1" />
    <trip id="veh_225" depart="2879" from="edge_in_1" to="edge_out_1" />
    <trip id="veh_226" depart="3239" from="edge_in_1" to="edge_out_1" />
    <trip id="veh_227" depart="3599" from="edge_in_1" to="edge_out_2" />
    <trip id="veh_228" depart="0" from="edge_in_2" to="edge_out_1" />
    <trip id="veh_229" depart="359" from="edge_in_2" to="edge_out_1" />
    <trip id="veh_230" depart="719" from="edge_in_1" to="edge_out_2" />
    <trip id="veh_231" depart="1079" from="edge_in_2" to="edge_out_2" />
    <trip id="veh_232" depart="1439" from="edge_in_1" to="edge_out_2" />
    <trip id="veh_233" depart="1799" from="edge_in_1" to="edge_out_2" />
    <trip id="veh_234" depart="2159" from="edge_in_2" to="edge_out_2" />
    <trip id="veh_235" depart="2519" from="edge_in_1" to="edge_out_2" />
    <trip id="veh_236" depart="2879" from="edge_in_2" to="edge_out_2" />
    <trip id="veh_237" depart="3239" from="edge_in_2" to="edge_out_1" />
    <trip id="veh_238" depart="3599" from="edge_in_2" to="edge_out_2" />
    <trip id="veh_239" depart="0" from="edge_in_2" to="edge_out_2" />
    <trip id="veh_240" depart="399" from="edge_in_1" to="edge_out_1" />
    <trip id="veh_241" depart="799" from="edge_in_1" to="edge_out_1" />
    <trip id="veh_242" depart="1199" from="edge_in_2" to="edge_out_1" />
    <trip id="veh_243" depart="1599" from="edge_in_1" to="edge_out_2" />
    <trip id="veh_244" depart="1999" from="edge_in_2" to="edge_out_1" />
    <trip id="veh_245" depart="2399" from="edge_in_1" to="edge_out_2" />
    <trip id="veh_246" depart="2799" from="edge_in_2" to="edge_out_1" />
    <trip id="veh_247" depart="3199" from="edge_in_2" to="edge_out_2" />
    <trip id="veh_248" depart="3599" from="edge_in_2" to="edge_out_2" />
    <trip id="veh_249" depart="0" from="edge_in_1" to="edge_out_1" />
    <trip id="veh_250" depart="399" from="edge_in_2" to="edge_out_1" />
    <trip id="veh_251" depart="799" from="edge_in_2" to="edge_out_2" />
    <trip id="veh_252" depart="1199" from="edge_in_2" to="edge_out_1" />
    <trip id="veh_253" depart="1599" from="edge_in_2" to="edge_out_1" />
    <trip id="veh_254" depart="1999" from="edge_in_2" to="edge_out_1" />
    <trip id="veh_255" depart="2399" from="edge_in_2" to="edge_out_2" />
    <trip id="veh_256" depart="2799" from="edge_in_2" to="edge_out_2" />
    <trip id="veh_257" depart="3199" from="edge_in_1" to="edge_out_2" />
    <trip id="veh_258" depart="3599" from="edge_in_1" to="edge_out_1" />
    <trip id="veh_259" depart="0" from="edge_in_2" to="edge_out_1" />
    <trip id="veh_260" depart="399" from="edge_in_2" to="edge_out_2" />
    <trip id="veh_261" depart="799" from="edge_in_2" to="edge_out_2" />
    <trip id="veh_262" depart="1199" from="edge_in_1" to="edge_out_1" />
    <trip id="veh_263" depart="1599" from="edge_in_2" to="edge_out_1" />
    <trip id="veh_264" depart="1999" from="edge_in_1" to="edge_out_1" />
    <trip id="veh_265" depart="2399" from="edge_in_1" to="edge_out_2" />
    <trip id="veh_266" depart="2799" from="edge_in_2" to="edge_out_1" />
    <trip id="veh_267" depart="3199" from="edge_in_1" to="edge_out_2" />
    <trip id="veh_268" depart="3599" from="edge_in_1" to="edge_out_2" />
    <trip id="veh_269" depart="0" from="edge_in_2" to="edge_out_1" />
    <trip id="veh_270" depart="399" from="edge_in_2" to="edge_out_2" />
    <trip id="veh_271" depart="799" from="edge_in_1" to="edge_out_2" />
    <trip id="veh_272" depart="1199" from="edge_in_1" to="edge_out_1" />
    <trip id="veh_273" depart="1599" from="edge_in_2" to="edge_out_2" />
    <trip id="veh_274" depart="1999" from="edge_in_1" to="edge_out_1" />
    <trip id="veh_275" depart="2399" from="edge_in_1" to="edge_out_1" />
    <trip id="veh_276" depart="2799" from="edge_in_1" to="edge_out_1" />
    <trip id="veh_277" depart="3199" from="edge_in_1" to="edge_out_2" />
    <trip id="veh_278" depart="3599" from="edge_in_2" to="edge_out_2" />
    <trip id="veh_279" depart="0" from="edge_in_1" to="edge_out_1" />
    <trip id="veh_280" depart="399" from="edge_in_1" to="edge_out_1" />
    <trip id="veh_281" depart="799" from="edge_in_1" to="edge_out_2" />
    <trip id="veh_282" depart="1199" from="edge_in_1" to="edge_out_1" />
    <trip id="veh_283" depart="1599" from="edge_in_2" to="edge_out_1" />
    <trip id="veh_284" depart="1999" from="edge_in_1" to="edge_out_1" />
    <trip id="veh_285" depart="2399" from="edge_in_2" to="edge_out_2" />
    <trip id="veh_286" depart="2799" from="edge_in_1" to="edge_out_2" />
    <trip id="veh_287" depart="3199" from="edge_in_2" to="edge_out_2" />
    <trip id="veh_288" depart="3599" from="edge_in_1" to="edge_out_2" />
    <trip id="veh_289" depart="0" from="edge_in_1" to="edge_out_1" />
    <trip id="veh_290" depart="399" from="edge_in_1" to="edge_out_1" />
    <trip id="veh_291" depart="799" from="edge_in_2" to="edge_out_2" />
    <trip id="veh_292" depart="1199" from="edge_in_2" to="edge_out_1" />
    <trip id="veh_293" depart="1599" from="edge_in_1" to="edge_out_2" />
    <trip id="veh_294" depart="1999" from="edge_in_2" to="edge_out_1" />
    <trip id="veh_295" depart="2399" from="edge_in_2" to="edge_out_1" />
    <trip id="veh_296" depart="2799" from="edge_in_2" to="edge_out_2" />
    <trip id="veh_297" depart="3199" from="edge_in_1" to="edge_out_2" />
    <trip id="veh_298" depart="3599" from="edge_in_2" to="edge_out_2" />
    <trip id="veh_299" depart="0" from="edge_in_2" to="edge_out_1" />
    <trip id="veh_300" depart="399" from="edge_in_2" to="edge_out_1" />
    <trip id="veh_301" depart="799" from="edge_in_2" to="edge_out_1" />
    <trip id="veh_302" depart="1199" from="edge_in_1" to="edge_out_2" />
    <trip id="veh_303" depart="1599" from="edge_in_2" to="edge_out_2" />
    <trip id="veh_304" depart="1999" from="edge_in_2" to="edge_out_2" />
    <trip id="veh_305" depart="2399" from="edge_in_2" to="edge_out_2" />
    <trip id="veh_306" depart="2799" from="edge_in_2" to="edge_out_1" />
    <trip id="veh_307" depart="3199" from="edge_in_2" to="edge_out_1" />
    <trip id="veh_308" depart="3599" from="edge_in_1" to="edge_out_1" />
    <trip id="veh_309" depart="0" from="edge_in_1" to="edge_out_1" />
    <trip id="veh_310" depart="399" from="edge_in_1" to="edge_out_2" />
    <trip id="veh_311" depart="799" from="edge_in_2" to="edge_out_1" />
    <trip id="veh_312" depart="1199" from="edge_in_2" to="edge_out_2" />
    <trip id="veh_313" depart="1599" from="edge_in_1" to="edge_out_2" />
    <trip id="veh_314" depart="1999" from="edge_in_2" to="edge_out_2" />
    <trip id="veh_315" depart="2399" from="edge_in_1" to="edge_out_2" />
    <trip id="veh_316" depart="2799" from="edge_in_2" to="edge_out_1" />
    <trip id="veh_317" depart="3199" from="edge_in_1" to="edge_out_1" />
    <trip id="veh_318" depart="3599" from="edge_in_2" to="edge_out_1" />
    <trip id="veh_319" depart="0" from="edge_in_2" to="edge_out_1" />
    <trip id="veh_320" depart="399" from="edge_in_1" to="edge_out_2" />
    <trip id="veh_321" depart="799" from="edge_in_1" to="edge_out_2" />
    <trip id="veh_322" depart="1199" from="edge_in_2" to="edge_out_2" />
    <trip id="veh_323" depart="1599" from="edge_in_1" to="edge_out_1" />
    <trip id="veh_324" depart="1999" from="edge_in_2" to="edge_out_2" />
    <trip id="veh_325" depart="2399" from="edge_in_2" to="edge_out_1" />
    <trip id="veh_326" depart="2799" from="edge_in_1" to="edge_out_1" />
    <trip id="veh_327" depart="3199" from="edge_in_1" to="edge_out_2" />
    <trip id="veh_328" depart="3599" from="edge_in_2" to="edge_out_2" />
    <trip id="veh_329" depart="0" from="edge_in_1" to="edge_out_2" />
    <trip id="veh_330" depart="399" from="edge_in_1" to="edge_out_1" />
    <trip id="veh_331" depart="799" from="edge_in_1" to="edge_out_1" />
    <trip id="veh_332" depart="1199" from="edge_in_1" to="edge_out_2" />
    <trip id="veh_333" depart="1599" from="edge_in_2" to="edge_out_2" />
    <trip id="veh_334" depart="1999" from="edge_in_2" to="edge_out_1" />
    <trip id="veh_335" depart="2399" from="edge_in_2" to="edge_out_1" />
    <trip id="veh_336" depart="2799" from="edge_in_2" to="edge_out_1" />
    <trip id="veh_337" depart="3199" from="edge_in_1" to="edge_out_2" />
    <trip id="veh_338" depart="3599" from="edge_in_1" to="edge_out_2" />
    <trip id="veh_339" depart="0" from="edge_in_2" to="edge_out_2" />
    <trip id="veh_340" depart="359" from="edge_in_2" to="edge_out_2" />
    <trip id="veh_341" depart="719" from="edge_in_1" to="edge_out_1" />
    <trip id="veh_342" depart="1079" from="edge_in_2" to="edge_out_1" />
    <trip id="veh_343" depart="1439" from="edge_in_2" to="edge_out_1" />
    <trip id="veh_344" depart="1799" from="edge_in_2" to="edge_out_2" />
    <trip id="veh_345" depart="2159" from="edge_in_1" to="edge_out_1" />
    <trip id="veh_346" depart="2519" from="edge_in_1" to="edge_out_2" />
    <trip id="veh_347" depart="2879" from="edge_in_2" to="edge_out_1" />
    <trip id="veh_348" depart="3239" from="edge_in_2" to="edge_out_1" />
    <trip id="veh_349" depart="3599" from="edge_in_1" to="edge_out_2" />
    <trip id="veh_350" depart="0" from="edge_in_2" to="edge_out_1" />
    <trip id="veh_351" depart="359" from="edge_in_2" to="edge_out_2" />
    <trip id="veh_352" depart="719" from="edge_in_2" to="edge_out_1" />
    <trip id="veh_353" depart="1079" from="edge_in_1" to="edge_out_1" />
    <trip id="veh_354" depart="1439" from="edge_in_1" to="edge_out_2" />
    <trip id="veh_355" depart="1799" from="edge_in_2" to="edge_out_1" />
    <trip id="veh_356" depart="2159" from="edge_in_2" to="edge_out_1" />
    <trip id="veh_357" depart="2519" from="edge_in_1" to="edge_out_2" />
    <trip id="veh_358" depart="2879" from="edge_in_2" to="edge_out_2" />
    <trip id="veh_359" depart="3239" from="edge_in_1" to="edge_out_1" />
    <trip id="veh_360" depart="3599" from="edge_in_1" to="edge_out_1" />
    <trip id="veh_361" depart="0" from="edge_in_1" to="edge_out_2" />
    <trip id="veh_362" depart="299" from="edge_in_1" to="edge_out_1" />
    <trip id="veh_363" depart="599" from="edge_in_1" to="edge_out_2" />
    <trip id="veh_364" depart="899" from="edge_in_1" to="edge_out_2" />
    <trip id="veh_365" depart="1199" from="edge_in_1" to="edge_out_1" />
    <trip id="veh_366" depart="1499" from="edge_in_1" to="edge_out_1" />
    <trip id="veh_367" depart="1799" from="edge_in_2" to="edge_out_1" />
    <trip id="veh_368" depart="2099" from="edge_in_2" to="edge_out_2" />
    <trip id="veh_369" depart="2399" from="edge_in_1" to="edge_out_1" />
    <trip id="veh_370" depart="2699" from="edge_in_2" to="edge_out_2" />
    <trip id="veh_371" depart="2999" from="edge_in_2" to="edge_out_1" />
    <trip id="veh_372" depart="3299" from="edge_in_2" to="edge_out_2" />
    <trip id="veh_373" depart="3599" from="edge_in_2" to="edge_out_1" />
    <trip id="veh_374" depart="0" from="edge_in_1" to="edge_out_1" />
    <trip id="veh_375" depart="299" from="edge_in_1" to="edge_out_1" />
    <trip id="veh_376" depart="599" from="edge_in_1" to="edge_out_1" />
    <trip id="veh_377" depart="899" from="edge_in_1" to="edge_out_1" />
    <trip id="veh_378" depart="1199" from="edge_in_2" to="edge_out_2" />
    <trip id="veh_379" depart="1499" from="edge_in_2" to="edge_out_1" />
    <trip id="veh_380" depart="1799" from="edge_in_1" to="edge_out_1" />
    <trip id="veh_381" depart="2099" from="edge_in_2" to="edge_out_2" />
    <trip id="veh_382" depart="2399" from="edge_in_1" to="edge_out_2" />
    <trip id="veh_383" depart="2699" from="edge_in_2" to="edge_out_2" />
    <trip id="veh_384" depart="2999" from="edge_in_1" to="edge_out_1" />
    <trip id="veh_385" depart="3299" from="edge_in_1" to="edge_out_1" />
    <trip id="veh_386" depart="3599" from="edge_in_1" to="edge_out_2" />
    <trip id="veh_387" depart="0" from="edge_in_2" to="edge_out_2" />
    <trip id="veh_388" depart="299" from="edge_in_2" to="edge_out_1" />
    <trip id="veh_389" depart="599" from="edge_in_1" to="edge_out_2" />
    <trip id="veh_390" depart="899" from="edge_in_2" to="edge_out_1" />
    <trip id="veh_391" depart="1199" from="edge_in_1" to="edge_out_2" />
    <trip id="veh_392" depart="1499" from="edge_in_1" to="edge_out_2" />
    <trip id="veh_393" depart="1799" from="edge_in_2" to="edge_out_1" />
    <trip id="veh_394" depart="2099" from="edge_in_2" to="edge_out_1" />
    <trip id="veh_395" depart="2399" from="edge_in_2" to="edge_out_2" />
    <trip id="veh_396" depart="2699" from="edge_in_2" to="edge_out_1" />
    <trip id="veh_397" depart="2999" from="edge_in_2" to="edge_out_2" />
    <trip id="veh_398" depart="3299" from="edge_in_1" to="edge_out_1" />
    <trip id="veh_399" depart="3599" from="edge_in_1" to="edge_out_1" />
    <trip id="veh_400" depart="0" from="edge_in_2" to="edge_out_1" />
    <trip id="veh_401" depart="299" from="edge_in_1" to="edge_out_1" />
    <trip id="veh_402" depart="599" from="edge_in_1" to="edge_out_2" />
    <trip id="veh_403" depart="899" from="edge_in_1" to="edge_out_2" />
    <trip id="veh_404" depart="1199" from="edge_in_2" to="edge_out_1" />
    <trip id="veh_405" depart="1499" from="edge_in_1" to="edge_out_1" />
    <trip id="veh_406" depart="1799" from="edge_in_2" to="edge_out_2" />
    <trip id="veh_407" depart="2099" from="edge_in_1" to="edge_out_1" />
    <trip id="veh_408" depart="2399" from="edge_in_2" to="edge_out_2" />
    <trip id="veh_409" depart="2699" from="edge_in_2" to="edge_out_1" />
    <trip id="veh_410" depart="2999" from="edge_in_1" to="edge_out_2" />
    <trip id="veh_411" depart="3299" from="edge_in_2" to="edge_out_2" />
    <trip id="veh_412" depart="3599" from="edge_in_1" to="edge_out_2" />
    <trip id="veh_413" depart="0" from="edge_in_1" to="edge_out_1" />