<?xml version="1.0" encoding="UTF-8"?>

<!-- generated on 2025-11-25 16:55:12 by Eclipse SUMO netedit Version 1.24.0
<neteditConfiguration xmlns:xsi="http://www.w3.org/2001/XMLSchema-instance" xsi:noNamespaceSchemaLocation="http://sumo.dlr.de/xsd/neteditConfiguration.xsd">

    <input>
        <sumo-net-file value="C:\Users\gapmd\workspace\ms_project\MS_VCI_Simulation\simulation\net.net.xml"/>
    </input>

    <output>
        <output-file value="C:\Users\gapmd\workspace\ms_project\MS_VCI_Simulation\simulation\net.net.xml"/>
    </output>

    <processing>
        <geometry.min-radius.fix.railways value="false"/>
        <geometry.avoid-overlap value="false"/>
        <geometry.max-grade.fix value="false"/>
        <offset.disable-normalization value="true"/>
        <lefthand value="0"/>
    </processing>

    <junctions>
        <no-turnarounds value="true"/>
        <junctions.corner-detail value="0"/>
        <junctions.limit-turn-speed value="-1.00"/>
        <rectangular-lane-cut value="0"/>
    </junctions>

    <pedestrian>
        <walkingareas value="0"/>
    </pedestrian>

</neteditConfiguration>
-->

<net version="1.20" avoidOverlap="0" xmlns:xsi="http://www.w3.org/2001/XMLSchema-instance" xsi:noNamespaceSchemaLocation="http://sumo.dlr.de/xsd/net_file.xsd">

    <location netOffset="-526017.24,-4547308.05" convBoundary="3395.47,4004.29,12014.62,11006.13" origBoundary="-8.689824,41.076258,-8.546796,41.192513" projParameter="+proj=utm +zone=29 +ellps=WGS84 +datum=WGS84 +units=m +no_defs"/>

    <edge id=":100129_0" function="internal">
        <lane id=":100129_0_0" index="0" speed="18.05" length="39.81" shape="9025.73,6577.13 9020.27,6569.97 9013.50,6561.54 9006.44,6553.38 9000.10,6547.02"/>
        <lane id=":100129_0_1" index="1" speed="18.05" length="39.81" shape="9028.16,6575.03 9022.65,6567.82 9015.77,6559.28 9008.60,6551.02 9002.21,6544.61"/>
    </edge>
    <edge id=":100129_2" function="internal">
        <lane id=":100129_2_0" index="0" speed="25.00" length="39.38" shape="9030.45,6572.46 9000.10,6547.02"/>
        <lane id=":100129_2_1" index="1" speed="25.00" length="39.38" shape="9032.24,6569.74 9002.21,6544.61"/>
    </edge>
    <edge id=":1032501_0" function="internal">
        <lane id=":1032501_0_0" index="0" speed="20.84" length="28.88" shape="4164.79,10248.98 4157.80,10243.23 4151.77,10239.97 4145.99,10237.75 4139.74,10235.11"/>
        <lane id=":1032501_0_1" index="1" speed="20.84" length="29.12" shape="4164.79,10248.98 4157.98,10242.73 4152.44,10238.50 4147.17,10235.32 4141.16,10232.25"/>
    </edge>
    <edge id=":1032501_2" function="internal">
        <lane id=":1032501_2_0" index="0" speed="25.00" length="29.31" shape="4164.79,10248.98 4143.68,10228.66"/>
        <lane id=":1032501_2_1" index="1" speed="25.00" length="29.31" shape="4167.02,10246.68 4145.90,10226.36"/>
        <lane id=":1032501_2_2" index="2" speed="25.00" length="29.31" shape="4169.25,10244.38 4148.12,10224.05"/>
    </edge>
    <edge id=":1073463_0" function="internal">
        <lane id=":1073463_0_0" index="0" speed="19.45" length="0.30" shape="7880.15,10648.46 7879.91,10648.28"/>
        <lane id=":1073463_0_1" index="1" speed="19.45" length="0.30" shape="7882.08,10645.91 7881.85,10645.73"/>
    </edge>
    <edge id=":108336_0" function="internal">
        <lane id=":108336_0_0" index="0" speed="25.00" length="0.29" shape="5865.91,5077.44 5865.61,5077.34"/>
        <lane id=":108336_0_1" index="1" speed="25.00" length="0.29" shape="5866.84,5074.37 5866.59,5074.30"/>
    </edge>
    <edge id=":108356_0" function="internal">
        <lane id=":108356_0_0" index="0" speed="11.11" length="10.12" shape="6162.78,5131.02 6159.86,5130.93 6157.88,5131.41 6155.99,5132.41 6153.35,5133.87"/>
    </edge>
    <edge id=":108356_1" function="internal">
        <lane id=":108356_1_0" index="0" speed="11.11" length="9.98" shape="6162.78,5131.02 6152.87,5129.90"/>
    </edge>
    <edge id=":108853_0" function="internal">
        <lane id=":108853_0_0" index="0" speed="20.84" length="8.91" shape="8302.24,6042.96 8300.46,6041.01 8299.22,6039.69 8297.92,6038.43 8295.97,6036.64"/>
    </edge>
    <edge id=":108853_1" function="internal">
        <lane id=":108853_1_0" index="0" speed="25.00" length="9.10" shape="8302.24,6042.96 8300.89,6040.72 8300.68,6038.79 8300.54,6036.79 8299.41,6034.38"/>
        <lane id=":108853_1_1" index="1" speed="25.00" length="9.10" shape="8304.61,6040.81 8303.31,6038.63 8303.15,6036.75 8303.05,6034.80 8301.97,6032.45"/>
    </edge>
    <edge id=":109014_0" function="internal">
        <lane id=":109014_0_0" index="0" speed="18.05" length="28.59" shape="5789.18,5022.21 5793.09,5025.68 5798.60,5030.50 5805.14,5035.37 5812.14,5039.02"/>
    </edge>
    <edge id=":109014_1" function="internal">
        <lane id=":109014_1_0" index="0" speed="25.00" length="28.72" shape="5786.99,5025.59 5793.37,5029.11 5799.39,5032.70 5805.51,5036.09 5812.14,5039.02"/>
        <lane id=":109014_1_1" index="1" speed="25.00" length="28.72" shape="5785.55,5028.45 5791.97,5031.99 5798.12,5035.63 5804.35,5039.07 5811.03,5042.02"/>
    </edge>
    <edge id=":109082_0" function="internal">
        <lane id=":109082_0_0" index="0" speed="19.45" length="22.33" shape="4580.55,5753.51 4579.59,5757.46 4578.41,5762.18 4577.46,5768.06 4577.23,5775.50"/>
    </edge>
    <edge id=":109082_1" function="internal">
        <lane id=":109082_1_0" index="0" speed="25.00" length="22.33" shape="4576.51,5753.18 4577.23,5775.50"/>
        <lane id=":109082_1_1" index="1" speed="25.00" length="22.33" shape="4573.32,5753.28 4574.03,5775.60"/>
        <lane id=":109082_1_2" index="2" speed="25.00" length="22.33" shape="4570.12,5753.39 4570.83,5775.71"/>
    </edge>
    <edge id=":11055_0" function="internal">
        <lane id=":11055_0_0" index="0" speed="18.05" length="18.48" shape="9104.53,9569.90 9105.30,9566.19 9106.28,9562.22 9106.69,9557.54 9105.71,9551.72"/>
    </edge>
    <edge id=":11055_1" function="internal">
        <lane id=":11055_1_0" index="0" speed="25.00" length="18.20" shape="9107.90,9569.08 9108.48,9563.60 9109.38,9559.80 9109.76,9556.08 9108.78,9550.81"/>
        <lane id=":11055_1_1" index="1" speed="25.00" length="18.20" shape="9111.13,9567.87 9111.67,9562.48 9112.51,9558.75 9112.84,9555.08 9111.85,9549.90"/>
        <lane id=":11055_1_2" index="2" speed="25.00" length="18.20" shape="9114.35,9566.66 9114.87,9561.36 9115.64,9557.69 9115.91,9554.09 9114.92,9548.99"/>
    </edge>
    <edge id=":110708_0" function="internal">
        <lane id=":110708_0_0" index="0" speed="18.05" length="3.38" shape="8994.13,6494.62 8994.85,6494.87 8995.34,6495.02 8995.85,6495.16 8996.59,6495.33"/>
        <lane id=":110708_0_1" index="1" speed="18.05" length="3.38" shape="8994.13,6494.62 8995.85,6498.45"/>
    </edge>
    <edge id=":110708_2" function="internal">
        <lane id=":110708_2_0" index="0" speed="22.22" length="2.73" shape="8994.13,6494.62 8996.56,6495.45"/>
        <lane id=":110708_2_1" index="1" speed="22.22" length="2.73" shape="8993.09,6497.65 8995.82,6498.57"/>
    </edge>
    <edge id=":114274_0" function="internal">
        <lane id=":114274_0_0" index="0" speed="23.61" length="8.68" shape="3778.15,8667.73 3776.95,8669.86 3775.46,8670.96 3774.01,8672.07 3772.91,8674.23"/>
        <lane id=":114274_0_1" index="1" speed="23.61" length="8.68" shape="3775.10,8666.76 3773.89,8668.93 3772.39,8670.06 3770.93,8671.20 3769.82,8673.40"/>
        <lane id=":114274_0_2" index="2" speed="23.61" length="8.68" shape="3772.05,8665.79 3770.83,8668.00 3769.32,8669.16 3767.85,8670.33 3766.73,8672.57"/>
    </edge>
    <edge id=":114983_0" function="internal">
        <lane id=":114983_0_0" index="0" speed="13.89" length="8.02" shape="6739.19,5306.77 6741.61,5307.08 6743.40,5306.57 6745.16,5306.13 6747.50,5306.63"/>
        <lane id=":114983_0_1" index="1" speed="13.89" length="8.02" shape="6739.19,5306.77 6741.30,5307.51 6742.74,5308.04 6744.15,5308.64 6746.19,5309.55"/>
    </edge>
    <edge id=":123014_0" function="internal">
        <lane id=":123014_0_0" index="0" speed="19.45" length="27.95" shape="7250.34,5596.55 7243.07,5593.56 7235.49,5591.13 7228.70,5589.26 7223.79,5587.92"/>
    </edge>
    <edge id=":123014_1" function="internal">
        <lane id=":123014_1_0" index="0" speed="25.00" length="27.96" shape="7250.34,5596.55 7225.18,5584.35"/>
        <lane id=":123014_1_1" index="1" speed="25.00" length="27.96" shape="7251.74,5593.67 7226.58,5581.47"/>
    </edge>
    <edge id=":123952_0" function="internal">
        <lane id=":123952_0_0" index="0" speed="18.05" length="8.46" shape="7286.05,5595.05 7288.22,5596.00 7289.99,5595.89 7291.83,5595.65 7294.23,5596.19"/>
    </edge>
    <edge id=":123952_1" function="internal">
        <lane id=":123952_1_0" index="0" speed="22.22" length="7.93" shape="7287.01,5593.00 7294.23,5596.19"/>
        <lane id=":123952_1_1" index="1" speed="22.22" length="7.93" shape="7285.65,5595.90 7292.93,5599.12"/>
    </edge>
    <edge id=":124075_0" function="internal">
        <lane id=":124075_0_0" index="0" speed="18.05" length="50.51" shape="8136.33,5834.00 8127.34,5827.08 8114.14,5818.54 8101.43,5810.91 8093.91,5806.70"/>
    </edge>
    <edge id=":124075_1" function="internal">
        <lane id=":124075_1_0" index="0" speed="25.00" length="50.51" shape="8136.33,5834.00 8128.22,5827.07 8116.67,5818.28 8104.89,5809.77 8096.11,5803.66"/>
        <lane id=":124075_1_1" index="1" speed="25.00" length="50.51" shape="8138.59,5831.73 8130.45,5824.78 8118.86,5815.94 8107.05,5807.37 8098.24,5801.24"/>
    </edge>
    <edge id=":124300_0" function="internal">
        <lane id=":124300_0_0" index="0" speed="19.45" length="8.49" shape="6718.26,5295.61 6720.17,5297.15 6721.08,5298.77 6722.03,5300.29 6724.07,5301.52"/>
    </edge>
    <edge id=":124300_1" function="internal">
        <lane id=":124300_1_0" index="0" speed="22.22" length="7.82" shape="6718.26,5295.61 6720.27,5296.66 6721.64,5297.40 6722.96,5298.21 6724.87,5299.44"/>
        <lane id=":124300_1_1" index="1" speed="22.22" length="7.82" shape="6716.79,5298.46 6718.90,5299.55 6720.32,5300.34 6721.71,5301.20 6723.70,5302.50"/>
    </edge>
    <edge id=":125712_0" function="internal">
        <lane id=":125712_0_0" index="0" speed="18.05" length="28.83" shape="8211.32,5919.61 8209.53,5914.67 8206.47,5907.95 8202.35,5900.81 8197.38,5894.60"/>
    </edge>
    <edge id=":125712_1" function="internal">
        <lane id=":125712_1_0" index="0" speed="25.00" length="28.78" shape="8215.14,5917.12 8210.88,5911.18 8206.72,5905.47 8202.32,5899.96 8197.38,5894.60"/>
        <lane id=":125712_1_1" index="1" speed="25.00" length="28.78" shape="8217.51,5914.94 8213.24,5908.98 8209.03,5903.24 8204.60,5897.70 8199.64,5892.33"/>
    </edge>
    <edge id=":126747_0" function="internal">
        <lane id=":126747_0_0" index="0" speed="18.05" length="31.03" shape="4572.81,5638.28 4573.59,5648.71 4574.95,5657.38 4576.55,5664.12 4578.03,5668.75"/>
    </edge>
    <edge id=":126747_1" function="internal">
        <lane id=":126747_1_0" index="0" speed="25.00" length="31.26" shape="4572.81,5638.28 4573.80,5669.53"/>
        <lane id=":126747_1_1" index="1" speed="25.00" length="31.26" shape="4569.61,5638.39 4570.60,5669.63"/>
        <lane id=":126747_1_2" index="2" speed="25.00" length="31.26" shape="4566.41,5638.50 4567.40,5669.74"/>
    </edge>
    <edge id=":127164_0" function="internal">
        <lane id=":127164_0_0" index="0" speed="12.50" length="24.19" shape="6022.26,5117.16 6015.10,5115.80 6008.66,5114.03 6003.14,5112.40 5998.76,5111.48"/>
    </edge>
    <edge id=":127164_1" function="internal">
        <lane id=":127164_1_0" index="0" speed="13.89" length="21.24" shape="6022.67,5113.99 6015.95,5112.81 6010.48,5111.40 6005.96,5109.98 6002.09,5108.82"/>
    </edge>
    <edge id=":127875_0" function="internal">
        <lane id=":127875_0_0" index="0" speed="26.39" length="0.29" shape="8525.56,6195.25 8525.78,6195.40"/>
        <lane id=":127875_0_1" index="1" speed="26.39" length="0.29" shape="8523.73,6197.87 8523.99,6198.05"/>
    </edge>
    <edge id=":131629_0" function="internal">
        <lane id=":131629_0_0" index="0" speed="18.05" length="26.09" shape="4548.76,5773.20 4547.98,5764.40 4546.63,5757.35 4545.22,5751.82 4544.23,5747.56"/>
    </edge>
    <edge id=":131629_1" function="internal">
        <lane id=":131629_1_0" index="0" speed="25.00" length="26.27" shape="4548.76,5773.20 4547.88,5746.94"/>
        <lane id=":131629_1_1" index="1" speed="25.00" length="26.27" shape="4551.95,5773.09 4551.08,5746.84"/>
        <lane id=":131629_1_2" index="2" speed="25.00" length="26.27" shape="4555.15,5772.99 4554.28,5746.73"/>
    </edge>
    <edge id=":133532_0" function="internal">
        <lane id=":133532_0_0" index="0" speed="22.23" length="14.57" shape="8185.19,5846.60 8188.70,5849.63 8191.50,5851.72 8194.06,5853.42 8196.88,5855.27"/>
    </edge>
    <edge id=":133532_1" function="internal">
        <lane id=":133532_1_0" index="0" speed="27.78" length="14.75" shape="8185.19,5846.60 8188.20,5849.79 8189.86,5852.32 8191.45,5854.94 8194.22,5858.36"/>
        <lane id=":133532_1_1" index="1" speed="27.78" length="14.75" shape="8183.03,5848.96 8185.98,5852.10 8187.61,5854.60 8189.16,5857.17 8191.88,5860.54"/>
    </edge>
    <edge id=":1365_0" function="internal">
        <lane id=":1365_0_0" index="0" speed="19.45" length="41.17" shape="9142.30,9558.15 9141.84,9572.32 9140.88,9584.36 9140.08,9593.57 9140.12,9599.25"/>
    </edge>
    <edge id=":1365_1" function="internal">
        <lane id=":1365_1_0" index="0" speed="25.00" length="41.17" shape="9139.10,9558.16 9136.58,9599.46"/>
        <lane id=":1365_1_1" index="1" speed="25.00" length="41.17" shape="9135.90,9558.16 9133.39,9599.26"/>
        <lane id=":1365_1_2" index="2" speed="25.00" length="41.17" shape="9132.70,9558.17 9130.20,9599.06"/>
    </edge>
    <edge id=":13826_0" function="internal">
        <lane id=":13826_0_0" index="0" speed="20.84" length="29.02" shape="3516.27,9150.10 3519.57,9146.84 3524.15,9142.37 3529.48,9136.27 3535.06,9128.12"/>
    </edge>
    <edge id=":13826_1" function="internal">
        <lane id=":13826_1_0" index="0" speed="25.00" length="29.35" shape="3519.12,9152.65 3535.06,9128.12"/>
        <lane id=":13826_1_1" index="1" speed="25.00" length="29.35" shape="3521.82,9154.36 3537.81,9129.75"/>
        <lane id=":13826_1_2" index="2" speed="25.00" length="29.35" shape="3524.52,9156.08 3540.57,9131.38"/>
    </edge>
    <edge id=":139446_0" function="internal">
        <lane id=":139446_0_0" index="0" speed="18.05" length="8.73" shape="7757.12,5712.57 7754.66,5712.87 7753.08,5713.86 7751.49,5714.89 7749.03,5715.30"/>
    </edge>
    <edge id=":139446_1" function="internal">
        <lane id=":139446_1_0" index="0" speed="25.00" length="7.99" shape="7757.01,5715.58 7749.03,5715.30"/>
        <lane id=":139446_1_1" index="1" speed="25.00" length="7.99" shape="7757.13,5712.39 7749.13,5712.11"/>
    </edge>
    <edge id=":141513_0" function="internal">
        <lane id=":141513_0_0" index="0" speed="18.05" length="8.49" shape="6715.87,5317.64 6713.78,5316.50 6712.01,5316.46 6710.14,5316.56 6707.78,5315.83"/>
    </edge>
    <edge id=":141513_1" function="internal">
        <lane id=":141513_1_0" index="0" speed="22.22" length="8.00" shape="6714.86,5319.49 6707.78,5315.83"/>
        <lane id=":141513_1_1" index="1" speed="22.22" length="8.00" shape="6716.39,5316.68 6709.27,5313.00"/>
    </edge>
    <edge id=":144565_0" function="internal">
        <lane id=":144565_0_0" index="0" speed="16.66" length="18.35" shape="6199.02,5135.03 6180.78,5133.00"/>
    </edge>
    <edge id=":144565_1" function="internal">
        <lane id=":144565_1_0" index="0" speed="22.22" length="18.73" shape="6199.02,5135.03 6193.60,5133.93 6190.04,5132.46 6186.49,5130.93 6181.10,5129.65"/>
        <lane id=":144565_1_1" index="1" speed="22.22" length="18.73" shape="6199.39,5131.85 6194.00,5130.75 6190.47,5129.29 6186.94,5127.76 6181.58,5126.48"/>
    </edge>
    <edge id=":1496_0" function="internal">
        <lane id=":1496_0_0" index="0" speed="18.05" length="24.73" shape="4020.91,8339.28 4016.96,8340.92 4012.06,8343.22 4006.28,8346.65 3999.68,8351.71"/>
    </edge>
    <edge id=":1496_1" function="internal">
        <lane id=":1496_1_0" index="0" speed="22.22" length="24.66" shape="4018.37,8335.64 3999.68,8351.71"/>
        <lane id=":1496_1_1" index="1" speed="22.22" length="24.66" shape="4016.28,8333.22 3997.59,8349.29"/>
        <lane id=":1496_1_2" index="2" speed="22.22" length="24.66" shape="4014.20,8330.79 3995.50,8346.87"/>
    </edge>
    <edge id=":15171_0" function="internal">
        <lane id=":15171_0_0" index="0" speed="13.89" length="86.37" shape="5866.88,10812.32 5852.04,10811.03 5823.83,10808.95 5795.60,10807.03 5780.73,10806.20"/>
    </edge>
    <edge id=":15171_1" function="internal">
        <lane id=":15171_1_0" index="0" speed="15.28" length="86.23" shape="5866.88,10812.32 5781.17,10802.48"/>
        <lane id=":15171_1_1" index="1" speed="15.28" length="86.23" shape="5866.88,10812.32 5781.69,10799.32"/>
    </edge>
    <edge id=":153967_0" function="internal">
        <lane id=":153967_0_0" index="0" speed="19.45" length="71.71" shape="3918.73,8366.58 3930.54,8360.46 3948.41,8350.16 3966.61,8338.67 3979.41,8329.03"/>
        <lane id=":153967_0_1" index="1" speed="19.45" length="71.71" shape="3920.58,8369.26 3932.45,8363.09 3950.43,8352.66 3968.75,8341.06 3981.60,8331.36"/>
    </edge>
    <edge id=":153967_2" function="internal">
        <lane id=":153967_2_0" index="0" speed="25.00" length="71.56" shape="3923.06,8372.75 3979.41,8329.03"/>
        <lane id=":153967_2_1" index="1" speed="25.00" length="71.56" shape="3925.07,8375.24 3981.60,8331.36"/>
        <lane id=":153967_2_2" index="2" speed="25.00" length="71.56" shape="3927.08,8377.73 3983.80,8333.69"/>
    </edge>
    <edge id=":15446_0" function="internal">
        <lane id=":15446_0_0" index="0" speed="25.00" length="11.71" shape="9144.15,6960.35 9144.76,6956.98 9145.80,6954.78 9146.84,6952.59 9147.47,6949.22"/>
        <lane id=":15446_0_1" index="1" speed="25.00" length="12.78" shape="9147.34,6960.54 9147.98,6956.85 9149.03,6954.42 9150.08,6952.00 9150.73,6948.31"/>
    </edge>
    <edge id=":15446_2" function="internal">
        <lane id=":15446_2_0" index="0" speed="25.00" length="12.49" shape="9150.54,6960.74 9151.00,6956.96 9151.81,6954.46 9152.98,6952.04 9154.53,6948.50"/>
        <lane id=":15446_2_1" index="1" speed="25.00" length="12.49" shape="9153.73,6960.93 9154.17,6957.44 9154.96,6955.15 9156.07,6952.92 9157.51,6949.65"/>
    </edge>
    <edge id=":154711_0" function="internal">
        <lane id=":154711_0_0" index="0" speed="19.45" length="24.70" shape="5526.90,4756.01 5527.42,4760.54 5528.83,4766.30 5531.16,4772.74 5534.43,4779.33"/>
    </edge>
    <edge id=":154711_1" function="internal">
        <lane id=":154711_1_0" index="0" speed="25.00" length="24.82" shape="5522.01,4757.85 5534.43,4779.33"/>
        <lane id=":154711_1_1" index="1" speed="25.00" length="24.82" shape="5519.24,4759.45 5531.67,4780.94"/>
    </edge>
    <edge id=":155787_0" function="internal">
        <lane id=":155787_0_0" index="0" speed="26.39" length="0.31" shape="5307.69,4325.81 5307.64,4325.83 5307.61,4325.84 5307.58,4325.85 5307.54,4325.86"/>
        <lane id=":155787_0_1" index="1" speed="26.39" length="0.31" shape="5306.83,4322.73 5306.70,4322.77 5306.61,4322.79 5306.52,4322.83 5306.39,4322.88"/>
    </edge>
    <edge id=":155942_0" function="internal">
        <lane id=":155942_0_0" index="0" speed="23.61" length="0.29" shape="6732.81,5328.60 6732.58,5328.48"/>
        <lane id=":155942_0_1" index="1" speed="23.61" length="0.29" shape="6734.30,5325.77 6734.03,5325.63"/>
    </edge>
    <edge id=":16080_0" function="internal">
        <lane id=":16080_0_0" index="0" speed="19.45" length="21.73" shape="9261.05,8300.01 9265.08,8294.14 9267.22,8288.82 9268.38,8284.15 9269.44,8280.22"/>
    </edge>
    <edge id=":16080_1" function="internal">
        <lane id=":16080_1_0" index="0" speed="25.00" length="22.82" shape="9263.48,8302.09 9267.05,8296.68 9268.36,8292.28 9269.50,8287.74 9272.56,8281.93"/>
        <lane id=":16080_1_1" index="1" speed="25.00" length="22.82" shape="9265.90,8304.18 9269.54,8298.70 9270.90,8294.23 9272.08,8289.64 9275.19,8283.75"/>
        <lane id=":16080_1_2" index="2" speed="25.00" length="22.82" shape="9268.33,8306.27 9272.04,8300.71 9273.43,8296.19 9274.65,8291.54 9277.83,8285.57"/>
        <lane id=":16080_1_3" index="3" speed="25.00" length="22.82" shape="9270.76,8308.35 9274.53,8302.72 9275.97,8298.15 9277.23,8293.44 9280.46,8287.39"/>
    </edge>
    <edge id=":165246_0" function="internal">
        <lane id=":165246_0_0" index="0" speed="12.50" length="5.40" shape="6111.59,5129.07 6110.04,5128.67 6108.96,5128.46 6107.87,5128.33 6106.28,5128.14"/>
    </edge>
    <edge id=":165246_1" function="internal">
        <lane id=":165246_1_0" index="0" speed="12.50" length="3.05" shape="6109.74,5125.00 6108.84,5124.95 6108.22,5125.00 6107.59,5125.03 6106.69,5124.97"/>
    </edge>
    <edge id=":16974_0" function="internal">
        <lane id=":16974_0_0" index="0" speed="18.05" length="64.60" shape="9043.88,9855.65 9040.20,9864.26 9034.11,9880.49 9026.60,9899.16 9018.65,9915.06"/>
    </edge>
    <edge id=":16974_1" function="internal">
        <lane id=":16974_1_0" index="0" speed="25.00" length="63.80" shape="9040.92,9853.93 9035.88,9866.59 9030.02,9882.39 9023.36,9898.82 9015.92,9913.39"/>
        <lane id=":16974_1_1" index="1" speed="25.00" length="63.80" shape="9037.85,9852.95 9032.86,9865.50 9027.12,9881.06 9020.58,9897.26 9013.19,9911.72"/>
        <lane id=":16974_1_2" index="2" speed="25.00" length="63.80" shape="9034.78,9851.96 9029.85,9864.41 9024.23,9879.73 9017.80,9895.70 9010.46,9910.04"/>
    </edge>
    <edge id=":170717_0" function="internal">
        <lane id=":170717_0_0" index="0" speed="11.11" length="8.72" shape="5603.90,10742.88 5606.18,10743.85 5607.43,10745.23 5608.67,10746.66 5610.92,10747.74"/>
    </edge>
    <edge id=":171963_0" function="internal">
        <lane id=":171963_0_0" index="0" speed="13.89" length="24.42" shape="5631.69,10782.46 5607.77,10777.54"/>
    </edge>
    <edge id=":171963_1" function="internal">
        <lane id=":171963_1_0" index="0" speed="15.28" length="24.39" shape="5632.08,10779.28 5624.86,10778.11 5618.28,10776.66 5612.64,10775.24 5608.25,10774.16"/>
    </edge>
    <edge id=":172300_0" function="internal">
        <lane id=":172300_0_0" index="0" speed="18.05" length="37.46" shape="5623.00,4905.08 5629.30,4911.00 5637.15,4917.28 5645.21,4923.35 5652.10,4928.62"/>
        <lane id=":172300_0_1" index="1" speed="18.05" length="37.61" shape="5623.00,4905.08 5628.98,4911.39 5636.15,4918.53 5643.52,4925.46 5650.11,4931.12"/>
    </edge>
    <edge id=":172300_2" function="internal">
        <lane id=":172300_2_0" index="0" speed="25.00" length="37.71" shape="5623.00,4905.08 5628.66,4911.72 5635.08,4919.62 5641.64,4927.39 5647.70,4933.62"/>
        <lane id=":172300_2_1" index="1" speed="25.00" length="37.71" shape="5620.64,4907.24 5645.28,4935.71"/>
    </edge>
    <edge id=":176493_0" function="internal">
        <lane id=":176493_0_0" index="0" speed="19.45" length="10.88" shape="8332.30,6032.84 8333.71,6035.54 8334.78,6037.50 8336.03,6039.44 8337.98,6042.09"/>
    </edge>
    <edge id=":176493_1" function="internal">
        <lane id=":176493_1_0" index="0" speed="27.78" length="11.26" shape="8328.82,6035.40 8331.44,6037.51 8333.60,6038.57 8335.66,6039.71 8337.98,6042.09"/>
        <lane id=":176493_1_1" index="1" speed="27.78" length="11.26" shape="8326.54,6037.64 8329.08,6039.68 8331.18,6040.67 8333.19,6041.75 8335.44,6044.03"/>
    </edge>
    <edge id=":17701_0" function="internal">
        <lane id=":17701_0_0" index="0" speed="23.61" length="20.71" shape="5150.13,10675.27 5170.35,10679.73"/>
    </edge>
    <edge id=":17701_1" function="internal">
        <lane id=":17701_1_0" index="0" speed="25.00" length="20.82" shape="5150.13,10675.27 5155.97,10677.31 5159.81,10679.17 5163.63,10681.07 5169.44,10683.22"/>
        <lane id=":17701_1_1" index="1" speed="25.00" length="20.82" shape="5149.23,10678.35 5155.05,10680.37 5158.87,10682.23 5162.67,10684.12 5168.46,10686.27"/>
        <lane id=":17701_1_2" index="2" speed="25.00" length="20.82" shape="5148.34,10681.42 5154.13,10683.44 5157.93,10685.29 5161.72,10687.18 5167.47,10689.31"/>
    </edge>
    <edge id=":181007_0" function="internal">
        <lane id=":181007_0_0" index="0" speed="15.28" length="21.17" shape="5467.37,4706.50 5467.45,4702.46 5467.00,4697.76 5465.70,4692.30 5463.21,4685.97"/>
    </edge>
    <edge id=":181007_1" function="internal">
        <lane id=":181007_1_0" index="0" speed="22.23" length="21.18" shape="5472.19,4705.16 5463.21,4685.97"/>
        <lane id=":181007_1_1" index="1" speed="22.23" length="21.18" shape="5475.08,4703.80 5466.11,4684.62"/>
    </edge>
    <edge id=":183628_0" function="internal">
        <lane id=":183628_0_0" index="0" speed="19.45" length="64.94" shape="7361.67,5621.92 7371.25,5627.03 7388.92,5635.91 7407.61,5644.78 7420.24,5649.87"/>
    </edge>
    <edge id=":183628_1" function="internal">
        <lane id=":183628_1_0" index="0" speed="25.00" length="65.02" shape="7360.17,5625.37 7372.05,5630.54 7390.01,5638.16 7408.06,5645.52 7420.24,5649.87"/>
        <lane id=":183628_1_1" index="1" speed="25.00" length="65.02" shape="7359.09,5628.39 7371.01,5633.57 7389.05,5641.22 7407.19,5648.60 7419.40,5652.96"/>
    </edge>
    <edge id=":184535_0" function="internal">
        <lane id=":184535_0_0" index="0" speed="22.23" length="35.39" shape="5653.75,4969.78 5628.37,4945.12"/>
    </edge>
    <edge id=":184535_1" function="internal">
        <lane id=":184535_1_0" index="0" speed="27.78" length="35.56" shape="5656.57,4967.13 5649.78,4962.16 5642.10,4956.55 5634.61,4950.72 5628.37,4945.12"/>
        <lane id=":184535_1_1" index="1" speed="27.78" length="35.56" shape="5658.49,4964.58 5651.75,4959.65 5644.20,4954.15 5636.84,4948.43 5630.66,4942.88"/>
    </edge>
    <edge id=":185183_0" function="internal">
        <lane id=":185183_0_0" index="0" speed="20.84" length="34.02" shape="5480.52,4665.74 5484.22,4673.71 5489.44,4682.30 5494.70,4689.79 5498.52,4694.47"/>
    </edge>
    <edge id=":185183_1" function="internal">
        <lane id=":185183_1_0" index="0" speed="25.00" length="34.02" shape="5480.52,4665.74 5483.51,4673.27 5487.22,4681.30 5491.04,4689.29 5494.37,4696.69"/>
        <lane id=":185183_1_1" index="1" speed="25.00" length="34.02" shape="5477.50,4666.78 5480.50,4674.34 5484.23,4682.44 5488.07,4690.49 5491.41,4697.92"/>
    </edge>
    <edge id=":185610_0" function="internal">
        <lane id=":185610_0_0" index="0" speed="23.61" length="0.32" shape="6333.21,5131.23 6333.35,5131.25 6333.45,5131.26 6333.55,5131.28 6333.69,5131.32"/>
        <lane id=":185610_0_1" index="1" speed="23.61" length="0.32" shape="6332.76,5134.40 6332.81,5134.40 6332.84,5134.41 6332.88,5134.41 6332.92,5134.43"/>
    </edge>
    <edge id=":189018_0" function="internal">
        <lane id=":189018_0_0" index="0" speed="25.00" length="7.90" shape="4631.02,4787.27 4632.64,4785.70 4634.31,4785.24 4636.06,4784.85 4637.95,4783.49"/>
        <lane id=":189018_0_1" index="1" speed="25.00" length="7.90" shape="4633.69,4789.03 4635.24,4787.57 4636.84,4787.20 4638.53,4786.89 4640.33,4785.62"/>
    </edge>
    <edge id=":189071_0" function="internal">
        <lane id=":189071_0_0" index="0" speed="25.00" length="8.61" shape="5890.10,10782.72 5892.37,10783.54 5893.69,10784.81 5895.02,10786.04 5897.31,10786.72"/>
        <lane id=":189071_0_1" index="1" speed="25.00" length="8.61" shape="5889.66,10785.89 5891.99,10786.71 5893.35,10787.99 5894.72,10789.22 5897.06,10789.91"/>
        <lane id=":189071_0_2" index="2" speed="25.00" length="8.61" shape="5889.23,10789.06 5891.60,10789.89 5893.01,10791.17 5894.41,10792.41 5896.80,10793.10"/>
    </edge>
    <edge id=":191270_0" function="internal">
        <lane id=":191270_0_0" index="0" speed="19.45" length="13.82" shape="5507.21,4785.62 5504.94,4781.90 5502.98,4779.31 5501.04,4777.14 5498.82,4774.69"/>
    </edge>
    <edge id=":191270_1" function="internal">
        <lane id=":191270_1_0" index="0" speed="27.78" length="13.97" shape="5507.21,4785.62 5505.42,4781.86 5504.63,4779.10 5503.95,4776.28 5502.50,4772.35"/>
        <lane id=":191270_1_1" index="1" speed="27.78" length="13.97" shape="5510.00,4784.05 5508.26,4780.37 5507.49,4777.67 5506.84,4774.90 5505.43,4771.06"/>
    </edge>
    <edge id=":191324_0" function="internal">
        <lane id=":191324_0_0" index="0" speed="18.05" length="15.92" shape="6001.90,5108.77 5986.44,5105.01"/>
    </edge>
    <edge id=":191324_1" function="internal">
        <lane id=":191324_1_0" index="0" speed="22.22" length="18.92" shape="6005.35,5105.94 5999.75,5105.45 5995.87,5105.62 5992.00,5105.71 5986.44,5105.01"/>
        <lane id=":191324_1_1" index="1" speed="22.22" length="18.92" shape="6005.83,5102.77 6000.27,5102.29 5996.41,5102.46 5992.56,5102.56 5987.04,5101.86"/>
    </edge>
    <edge id=":195901_0" function="internal">
        <lane id=":195901_0_0" index="0" speed="18.05" length="8.64" shape="7428.76,5674.15 7426.59,5673.02 7425.47,5671.55 7424.36,5670.04 7422.22,5668.81"/>
    </edge>
    <edge id=":195901_1" function="internal">
        <lane id=":195901_1_0" index="0" speed="25.00" length="7.91" shape="7428.76,5674.15 7426.50,5673.51 7424.97,5673.03 7423.47,5672.45 7421.31,5671.52"/>
        <lane id=":195901_1_1" index="1" speed="25.00" length="7.74" shape="7429.62,5671.06 7427.41,5670.44 7425.91,5669.96 7424.44,5669.39 7422.33,5668.48"/>
    </edge>
    <edge id=":21582_0" function="internal">