<configuration>
    <input>
        <net-file value="net.net.xml"/>
        <route-files value="vci.rou.xml"/>
    </input>

    <time>
        <begin value="0"/>
        <end value="600"/>
    </time>
</configuration>